cases/transmission/event_cases/case2383wp-excellent-pq-hour7.m
%% MATPOWER Case Format : Version 2
function mpc = case2383wp
%   SCENARIO — Excellent PQ, morning ramp (diurnal hour 7, 85% load).
%   PQ vs ideal at bus 6: local ≈ 0.003, global ≈ 0.001.
mpc.version = '2';

%%-----  Power Flow Data  -----%%
%% system MVA base
mpc.baseMVA = 100;
%% bus data
%    bus_i    type    Pd    Qd    Gs    Bs    area    Vm    Va    baseKV    zone    Vmax    Vmin
mpc.bus = [
	1	1	0.0	0.0	0.0	0.0	1	1.0897523726781515	0.57933176521618	220.0	1	1.11	0.95				
	2	1	0.0	0.0	0.0	0.0	1	1.0805910624063246	1.2623661623376354	220.0	1	1.11	0.95				
	3	1	0.0	0.0	0.0	0.0	1	1.080646437056935	-18.704199929334678	220.0	1	1.11	0.95				
	4	1	0.0	0.0	0.0	0.0	1	1.0692465802920204	-5.649202774321013	220.0	1	1.11	0.95				
	5	1	0.0	0.0	0.0	0.0	1	1.0618148915095273	-13.886085128694289	220.0	1	1.11	0.95				
	6	1	0.0	0.0	0.0	0.0	1	1.0206613017227426	-9.1746316622786	400.0	1	1.05	0.95				
	7	1	0.0	0.0	0.0	0.0	1	1.0530713770529163	-15.905498949949523	220.0	1	1.11	0.95				
	8	1	0.0	0.0	0.0	0.0	1	1.0252262429837138	-6.9129435208924415	400.0	1	1.05	0.95				
	9	1	0.0	0.0	0.0	0.0	1	1.0347335608208672	-11.568151053483463	400.0	1	1.05	0.95				
	10	2	10.3955	7.6499999999999995	0.0	0.0	1	1.1042110081715637	-13.918494973173198	220.0	1	1.11	0.95				
	11	1	0.0	0.0	0.0	0.0	1	1.0745296208706758	-4.465954706411033	220.0	1	1.11	0.95				
	12	1	0.0	0.0	0.0	0.0	1	1.0624220322829114	-18.458222822396237	220.0	1	1.11	0.95				
	13	1	0.0	0.0	0.0	0.0	1	1.0556019117826976	-15.88879449484779	220.0	1	1.11	0.95				
	14	1	0.0	0.0	0.0	0.0	1	1.0636886086042043	-2.4136907059487664	220.0	1	1.11	0.95				
	15	1	0.0	0.0	0.0	0.0	1	1.0133310955664014	-11.249279335396404	400.0	1	1.05	0.95				
	16	2	46.648	85.0	0.0	0.0	1	1.0916727086364857	1.0144618764167592	220.0	1	1.11	0.95				
	17	2	65.45	127.49999999999999	0.0	0.0	1	1.08486747629419	2.004724964551913	220.0	1	1.11	0.95				
	18	3	130.05	297.5	0.0	0.0	1	1.0209290987142483	5.996583543408716e-26	400.0	1	1.05	0.95				
	19	1	0.0	0.0	0.0	0.0	1	1.061132782044294	-17.28511241548035	220.0	1	1.11	0.95				
	20	1	0.0	0.0	0.0	0.0	1	1.0246129431197966	-1.3004457102007694	400.0	1	1.05	0.95				
	21	1	0.0	0.0	0.0	0.0	1	1.0534888418273218	-16.244321813495226	220.0	1	1.11	0.95				
	22	1	0.0	0.0	0.0	0.0	1	1.0761808263828307	-9.774159443113179	220.0	1	1.11	0.95				
	23	1	0.0	0.0	0.0	0.0	1	1.0474468413751907	-11.385620055098395	220.0	2	1.11	0.95				
	24	1	0.0	0.0	0.0	0.0	1	1.0523125818914225	-7.214493016986738	220.0	2	1.11	0.95				
	25	1	0.0	0.0	0.0	0.0	1	1.0519531477620792	-5.92376981272597	220.0	2	1.11	0.95				
	26	1	0.0	0.0	0.0	0.0	1	1.0422978375890521	-13.457254935740131	220.0	2	1.11	0.95				
	27	1	0.0	0.0	0.0	0.0	1	1.0573247179138594	-5.623815610081732	220.0	2	1.11	0.95				
	28	1	0.0	0.0	0.0	0.0	1	1.057314030090169	-5.6183297125240825	220.0	2	1.11	0.95				
	29	2	22.083000000000002	51.0	0.0	0.0	1	1.05928208917762	-10.826361187200508	220.0	2	1.11	0.95				
	30	2	22.083000000000002	51.0	0.0	0.0	1	1.059206159648165	-10.828845678136489	220.0	2	1.11	0.95				
	31	2	17.833000000000002	42.5	0.0	0.0	1	1.0093340593401547	-5.8467339342091895	400.0	2	1.05	0.95				
	32	1	0.0	0.0	0.0	0.0	1	1.0092304196316695	-5.8857666384137435	400.0	2	1.05	0.95				
	33	1	0.0	0.0	0.0	0.0	1	1.05259169308875	-6.297599037110606	220.0	2	1.11	0.95				
	34	1	0.0	0.0	0.0	0.0	1	1.043504490197864	-5.487783161590379	400.0	2	1.05	0.95				
	35	1	0.0	0.0	0.0	0.0	1	1.043534960977728	-5.494362499166341	400.0	2	1.05	0.95				
	36	1	0.0	0.0	0.0	0.0	1	0.9938421168145609	-8.841976032248889	400.0	2	1.05	0.95				
	37	1	0.0	0.0	0.0	0.0	1	1.0497672953869843	-11.723117606495231	220.0	2	1.11	0.95				
	38	1	0.0	0.0	0.0	0.0	1	1.0497693378881612	-11.721372765858103	220.0	2	1.11	0.95				
	39	1	0.0	0.0	0.0	0.0	1	1.0101440715127097	-4.653020519339724	400.0	2	1.05	0.95				
	40	1	0.0	0.0	0.0	0.0	1	1.0101463349199211	-4.643652891061899	400.0	2	1.05	0.95				
	41	2	10.191500000000001	25.5	0.0	0.0	1	1.0566165610502465	-4.016521385205699	220.0	2	1.11	0.95				
	42	2	10.191500000000001	25.5	0.0	0.0	1	1.0565873662378942	-4.031610957314262	220.0	2	1.11	0.95				
	43	2	20.383000000000003	51.0	0.0	0.0	1	1.020629782082088	-2.317515528157828	400.0	2	1.05	0.95				
	44	2	20.383000000000003	51.0	0.0	0.0	1	1.0206496943295513	-2.3290161609005566	400.0	2	1.05	0.95				
	45	2	135.864	63.74999999999999	0.0	0.0	1	1.0505584373587902	-11.459129092133628	220.0	2	1.11	0.95				
	46	1	0.0	0.0	0.0	0.0	1	1.050576194041787	-11.4573428950907	220.0	2	1.11	0.95				
	47	1	0.0	0.0	0.0	0.0	1	1.0534909835081512	-6.167017015142427	220.0	2	1.11	0.95				
	48	1	0.0	0.0	0.0	0.0	1	1.0516360206029463	-10.609742742587528	220.0	2	1.11	0.95				
	49	1	0.0	0.0	0.0	0.0	1	1.0516485950597592	-10.614279439862557	220.0	2	1.11	0.95				
	50	1	0.0	0.0	0.0	0.0	1	1.0294159875309532	-3.979968363279514	400.0	2	1.05	0.95				
	51	1	0.0	0.0	0.0	0.0	1	1.0295097110518807	-3.9959172365671924	400.0	2	1.05	0.95				
	52	1	0.0	0.0	0.0	0.0	1	1.046459168791782	-8.093329338268427	220.0	2	1.11	0.95				
	53	1	0.0	0.0	0.0	0.0	1	1.048076793943184	-8.006366250143385	220.0	2	1.11	0.95				
	54	1	0.0	0.0	0.0	0.0	1	1.0522461987646416	-5.860318528967207	220.0	2	1.11	0.95				
	55	1	0.0	0.0	0.0	0.0	1	1.0535756847885644	-10.669274152530825	220.0	2	1.11	0.95				
	56	1	0.0	0.0	0.0	0.0	1	1.0752512275083554	-1.2952457291564663	220.0	3	1.11	0.95				
	57	1	19.533	9.316	0.0	0.0	1	1.0784215939406274	-2.1435965584685928	220.0	3	1.11	0.95				
	58	1	18.683	4.9215	0.0	0.0	1	1.0786083229600725	-2.144105829174182	220.0	3	1.11	0.95				
	59	1	0.0	0.0	0.0	0.0	1	1.1048798572578584	5.529862988916227	220.0	3	1.11	0.95				
	60	1	0.0	0.0	0.0	0.0	1	1.0992119322464393	-0.5136893027162521	220.0	3	1.11	0.95				
	61	1	0.0	0.0	0.0	0.0	1	1.1082424414523555	7.189043744197629	220.0	3	1.11	0.95				
	62	1	0.0	0.0	0.0	0.0	1	1.1082263449213934	7.1912788137978065	220.0	3	1.11	0.95				
	63	2	31.764499999999995	44.78649999999999	0.0	0.0	1	1.1087710593064701	5.743471067082092	220.0	3	1.11	0.95				
	64	2	30.064499999999995	47.022000000000006	0.0	0.0	1	1.10672586939921	5.4481140118887215	220.0	3	1.11	0.95				
	65	1	11.3815	1.7169999999999999	0.0	0.0	1	1.1000026923476849	3.424664851987889	220.0	3	1.11	0.95				
	66	1	0.0	0.0	0.0	0.0	1	1.0870502493948684	-6.030506074648289	220.0	3	1.11	0.95				
	67	2	51.339999999999996	78.285	0.0	0.0	1	1.0295250400579936	-4.306830890823074	400.0	3	1.05	0.95				
	68	1	0.0	0.0	0.0	0.0	1	1.092148284787227	-4.25866935378418	220.0	3	1.11	0.95				
	69	1	0.0	0.0	0.0	0.0	1	1.1009722134374471	3.0552945476899462	220.0	3	1.11	0.95				
	70	1	0.0	0.0	0.0	0.0	1	1.0796631356112858	-0.4361186211612125	220.0	3	1.11	0.95				
	71	1	0.0	0.0	0.0	0.0	1	1.0956259092434766	2.51972594860513	220.0	3	1.11	0.95				
	72	1	0.0	0.0	0.0	0.0	1	1.0956259092434766	2.51972594860513	220.0	3	1.11	0.95				
	73	1	0.0	0.0	0.0	0.0	1	1.0820119913077884	0.21431763587230213	220.0	3	1.11	0.95				
	74	1	0.0	0.0	0.0	0.0	1	1.0792024764134494	-0.687643227036253	220.0	3	1.11	0.95				
	75	1	0.0	0.0	0.0	0.0	1	1.0226677325665858	-1.0580299897514593	400.0	3	1.05	0.95				
	76	1	0.0	0.0	0.0	0.0	1	1.0226377595263738	-1.0606795041274546	400.0	3	1.05	0.95				
	77	1	0.0	0.0	0.0	0.0	1	1.0942992550497104	1.764598309638477	220.0	3	1.11	0.95				
	78	1	0.0	0.0	0.0	0.0	1	1.0897037925329378	-1.9581928618448667	220.0	3	1.11	0.95				
	79	1	0.0	0.0	0.0	0.0	1	1.095221701783181	3.3456987776457665	220.0	3	1.11	0.95				
	80	1	0.0	0.0	0.0	0.0	1	1.0789593015190404	-2.100321518335659	220.0	3	1.11	0.95				
	81	1	0.0	0.0	0.0	0.0	1	1.0789813029270214	-2.0995256562356697	220.0	3	1.11	0.95				
	82	1	0.0	0.0	0.0	0.0	1	1.1037838081112383	6.1739560226854024	220.0	3	1.11	0.95				
	83	2	13.5915	19.524499999999996	0.0	0.0	1	1.1026563276288235	2.9390633618694317	220.0	3	1.11	0.95				
	84	2	13.421499999999998	18.929499999999997	0.0	0.0	1	1.1025481629374083	2.941277614533205	220.0	3	1.11	0.95				
	85	2	8.4915	14.458500000000003	0.0	0.0	1	1.0972394849969624	1.7598644464649313	220.0	3	1.11	0.95				
	86	2	8.4915	14.160999999999998	0.0	0.0	1	1.0971443891487769	1.7629875710967264	220.0	3	1.11	0.95				
	87	1	9.4265	13.786999999999999	0.0	0.0	1	1.0850689700089884	1.2954543567216048	220.0	3	1.11	0.95				
	88	1	0.0	0.0	0.0	0.0	1	1.0850804815443258	1.2960619989586686	220.0	3	1.11	0.95				
	89	1	0.0	0.0	0.0	0.0	1	1.1004696239365004	4.5192376351106915	220.0	3	1.11	0.95				
	90	1	0.0	0.0	0.0	0.0	1	1.0970463549074567	1.8264906942608143	220.0	3	1.11	0.95				
	91	1	0.0	0.0	0.0	0.0	1	1.100653536736227	4.062518370306785	220.0	3	1.11	0.95				
	92	1	0.0	0.0	0.0	0.0	1	1.0176640125100385	-2.4469333802680815	400.0	3	1.05	0.95				
	93	2	8.4915	13.931500000000002	0.0	0.0	1	1.1030593731206435	4.641814333079822	220.0	3	1.11	0.95				
	94	1	0.0	0.0	0.0	0.0	1	1.1030555784296912	4.6408325144814935	220.0	3	1.11	0.95				
	95	2	5.8565	6.9275	0.0	0.0	1	1.1076271396612578	5.032355287090974	220.0	3	1.11	0.95				
	96	1	0.0	0.0	0.0	0.0	1	1.1076234711910498	5.028172945991011	220.0	3	1.11	0.95				
	97	2	7.386499999999999	4.471	0.0	0.0	1	1.0970260490432413	1.4533363251002809	220.0	3	1.11	0.95				
	98	1	0.0	0.0	0.0	0.0	1	1.0215817896914845	-3.1857218653207675	400.0	3	1.05	0.95				
	99	1	0.0	0.0	0.0	0.0	1	1.0216561303507932	-3.178523937529586	400.0	3	1.05	0.95				
	100	1	0.0	0.0	0.0	0.0	1	1.027004852938873	-2.1572839056134416	400.0	3	1.05	0.95				
	101	1	0.0	0.0	0.0	0.0	1	1.0270314201944395	-2.1536200319924848	400.0	3	1.05	0.95				
	102	1	0.0	0.0	0.0	0.0	1	1.1027541784166401	4.669479144403497	220.0	3	1.11	0.95				
	103	2	15.376500000000002	20.196	0.0	0.0	1	1.0972585056110906	1.0138361374784994	220.0	3	1.11	0.95				
	104	2	28.627999999999997	39.1935	0.0	0.0	1	1.0972096014281814	1.0240512123422694	220.0	3	1.11	0.95				
	105	2	28.713	53.50750000000001	0.0	0.0	1	1.007447602896682	-2.022767321660701	400.0	3	1.05	0.95				
	106	1	0.0	0.0	0.0	0.0	1	1.007598655035404	-2.0317149507182535	400.0	3	1.05	0.95				
	107	1	0.0	0.0	0.0	0.0	1	1.0786504111632178	-0.7132082719484524	220.0	3	1.11	0.95				
	108	1	0.0	0.0	0.0	0.0	1	1.080056680350094	-0.5542878720643555	220.0	3	1.11	0.95				
	109	2	0.8500000000000001	19.005999999999997	0.0	0.0	1	1.1100000104549774	7.908665378293826	220.0	3	1.11	0.95				
	110	2	0.8500000000000001	18.853	0.0	0.0	1	1.1100000104294812	7.910799663204783	220.0	3	1.11	0.95				
	111	2	22.516499999999997	15.299999999999999	0.0	0.0	1	1.0950511126600444	-12.429925890239991	220.0	4	1.11	0.95				
	112	1	0.0	0.0	0.0	0.0	1	1.0949462974250428	-12.420982577554485	220.0	4	1.11	0.95				
	113	1	0.0	0.0	0.0	0.0	1	1.0566815768950262	-22.823375915283346	220.0	4	1.11	0.95				
	114	1	0.0	0.0	0.0	0.0	1	1.0668430274562046	-22.516582827669936	220.0	4	1.11	0.95				
	115	1	0.0	0.0	0.0	0.0	1	0.9750791052960165	-18.109375230267936	400.0	4	1.05	0.95				
	116	1	0.0	0.0	0.0	0.0	1	0.9750776442052287	-18.094133045417053	400.0	4	1.05	0.95				
	117	1	0.0	0.0	0.0	0.0	1	1.0817216621244585	-23.52261071747789	220.0	4	1.11	0.95				
	118	1	0.0	0.0	0.0	0.0	1	1.0365220359507183	-27.46705712745797	220.0	4	1.11	0.95				
	119	1	0.0	0.0	0.0	0.0	1	1.0365220359507183	-27.46705712745797	220.0	4	1.11	0.95				
	120	1	0.0	0.0	0.0	0.0	1	1.040155124187243	-27.893562640091528	220.0	4	1.11	0.95				
	121	1	0.0	0.0	0.0	0.0	1	1.0653403169108118	-22.538382116461424	220.0	4	1.11	0.95				
	122	1	0.0	0.0	0.0	0.0	1	1.0653403169108118	-22.538382116461424	220.0	4	1.11	0.95				
	123	2	4.675	5.95	0.0	0.0	1	1.100911797648872	-16.05372930628224	220.0	4	1.11	0.95				
	124	2	7.471499999999999	14.450000000000001	0.0	0.0	1	1.1009087888539721	-16.049116281807063	220.0	4	1.11	0.95				
	125	2	30.345000000000006	15.555	0.0	0.0	1	1.0641523684738088	-24.701986835393594	220.0	4	1.11	0.95				
	126	1	21.488000000000003	13.514999999999999	0.0	0.0	1	1.064074254776769	-24.690631034212757	220.0	4	1.11	0.95				
	127	2	21.853499999999997	13.004999999999999	0.0	0.0	1	1.0169150321332985	-17.919194637688616	400.0	4	1.05	0.95				
	128	1	0.0	0.0	0.0	0.0	1	1.016891126736738	-17.93115937267162	400.0	4	1.05	0.95				
	129	1	0.0	0.0	0.0	0.0	1	1.054910206417295	-26.017793509547847	220.0	4	1.11	0.95				
	130	1	0.0	0.0	0.0	0.0	1	1.0372676549974518	-27.140117311972038	220.0	4	1.11	0.95				
	131	2	58.369499999999995	59.5	0.0	0.0	1	1.083587094097598	-20.813244140913522	220.0	4	1.11	0.95				
	132	2	28.050000000000004	38.25	0.0	0.0	1	1.083710413123801	-20.81920669810171	220.0	4	1.11	0.95				
	133	1	0.0	0.0	0.0	0.0	1	0.9772496629466783	-19.81121108013418	400.0	4	1.05	0.95				
	134	1	0.0	0.0	0.0	0.0	1	0.9772428291530513	-19.81425950918032	400.0	4	1.05	0.95				
	135	1	0.0	0.0	0.0	0.0	1	1.0371044841833408	-27.45727382938019	220.0	4	1.11	0.95				
	136	1	0.0	0.0	0.0	0.0	1	1.0371044841833408	-27.45727382938019	220.0	4	1.11	0.95				
	137	1	0.0	0.0	0.0	0.0	1	0.9907285966993049	-13.987165957309413	400.0	4	1.05	0.95				
	138	1	0.0	0.0	0.0	0.0	1	0.9907285966993049	-13.987165957309413	400.0	4	1.05	0.95				
	139	2	28.22	19.21	0.0	0.0	1	1.1011955979223915	-16.31064682714021	220.0	4	1.11	0.95				
	140	2	24.8455	16.66	0.0	0.0	1	1.1012490362237908	-16.307357035015997	220.0	4	1.11	0.95				
	141	1	0.0	0.0	0.0	0.0	1	1.062480728961547	-26.69622816964656	220.0	4	1.11	0.95				
	142	1	0.0	0.0	0.0	0.0	1	1.0341521717009605	-27.649109613498585	220.0	4	1.11	0.95				
	143	1	0.0	0.0	0.0	0.0	1	1.0801235810401493	-24.475942180914668	220.0	4	1.11	0.95				
	144	1	0.0	0.0	0.0	0.0	1	1.0800556525590395	-24.47666666889494	220.0	4	1.11	0.95				
	145	1	0.0	0.0	0.0	0.0	1	0.9766150469128069	-23.14454790698002	400.0	4	1.05	0.95				
	146	1	0.0	0.0	0.0	0.0	1	0.9766150469128069	-23.14454790698002	400.0	4	1.05	0.95				
	147	1	0.0	0.0	0.0	0.0	1	1.0487136621285145	-25.19223100979462	220.0	4	1.11	0.95				
	148	1	0.0	0.0	0.0	0.0	1	1.048757520480274	-25.188311204498824	220.0	4	1.11	0.95				
	149	1	0.0	0.0	0.0	0.0	1	1.0773985600085165	-25.024482662737977	220.0	4	1.11	0.95				
	150	1	0.0	0.0	0.0	0.0	1	1.0592507738052597	-22.065671407649294	220.0	4	1.11	0.95				
	151	1	0.0	0.0	0.0	0.0	1	1.0592817829875327	-22.07235156890641	220.0	4	1.11	0.95				
	152	1	0.0	0.0	0.0	0.0	1	1.054213092510402	-18.69900866301581	220.0	4	1.11	0.95				
	153	1	0.0	0.0	0.0	0.0	1	1.054213092510402	-18.69900866301581	220.0	4	1.11	0.95				
	154	1	0.0	0.0	0.0	0.0	1	1.0346830653314318	-26.49981864284702	220.0	4	1.11	0.95				
	155	1	0.0	0.0	0.0	0.0	1	1.0708831803200913	-20.386056593395907	220.0	5	1.11	0.95				
	156	1	0.0	0.0	0.0	0.0	1	1.1100000110290318	-20.787828502606224	220.0	5	1.11	0.95				
	157	1	0.0	0.0	0.0	0.0	1	1.0198912974636325	-18.951368341507408	400.0	5	1.05	0.95				
	158	1	0.0	0.0	0.0	0.0	1	1.01988231359578	-18.94666655139697	400.0	5	1.05	0.95				
	159	1	0.0	0.0	0.0	0.0	1	1.0278406832393314	-17.111754422760843	400.0	5	1.05	0.95				
	160	1	0.0	0.0	0.0	0.0	1	1.027887843076455	-17.11458976482933	400.0	5	1.05	0.95				
	161	1	0.0	0.0	0.0	0.0	1	1.066712470965754	-22.01861368000748	220.0	5	1.11	0.95				
	162	1	0.0	0.0	0.0	0.0	1	1.0667158885629988	-22.019145949328024	220.0	5	1.11	0.95				
	163	1	0.0	0.0	0.0	0.0	1	1.1005368919818024	-18.749008916274015	220.0	5	1.11	0.95				
	164	1	0.0	0.0	0.0	0.0	1	1.1005313133031536	-18.75481086054207	220.0	5	1.11	0.95				
	165	1	0.0	0.0	0.0	0.0	1	1.006985029936986	-17.170485541442503	400.0	5	1.05	0.95				
	166	1	0.0	0.0	0.0	0.0	1	1.0815217648608817	-19.823632212892793	220.0	5	1.11	0.95				
	167	1	0.0	0.0	0.0	0.0	1	1.0815549821910029	-19.820478935042594	220.0	5	1.11	0.95				
	168	1	0.0	0.0	0.0	0.0	1	1.032853029714258	-18.70956295809146	400.0	5	1.05	0.95				
	169	1	0.0	0.0	0.0	0.0	1	1.0328503127792137	-18.715828397495052	400.0	5	1.05	0.95				
	170	1	0.0	0.0	0.0	0.0	1	1.064566452259513	-20.08787915891907	220.0	5	1.11	0.95				
	171	1	0.0	0.0	0.0	0.0	1	1.0645896489865097	-20.084807751253805	220.0	5	1.11	0.95				
	172	1	0.0	0.0	0.0	0.0	1	1.0780500809883382	-20.504680333474237	220.0	5	1.11	0.95				
	173	1	0.0	0.0	0.0	0.0	1	1.0780201992746332	-20.50599556045963	220.0	5	1.11	0.95				
	174	1	0.0	0.0	0.0	0.0	1	1.0724975585046532	-20.04283415093182	220.0	5	1.11	0.95				
	175	1	0.0	0.0	0.0	0.0	1	1.0724893471174501	-20.04607772331	220.0	5	1.11	0.95				
	176	2	0.0	34.0	0.0	0.0	1	1.0253046906417995	-15.438018834190109	400.0	5	1.05	0.95				
	177	2	0.0	34.0	0.0	0.0	1	1.0254053142014556	-15.437694810316525	400.0	5	1.05	0.95				
	178	1	0.0	0.0	0.0	0.0	1	1.0848220089441547	-22.811637462843976	220.0	5	1.11	0.95				
	179	1	0.0	0.0	0.0	0.0	1	1.0848462378560528	-22.806767899340237	220.0	5	1.11	0.95				
	180	2	288.8725	42.16	0.0	0.0	2	0.9956413364825986	-4.416909091583765	400.0	6	1.05	0.95				
	181	2	0.0	0.0	0.0	0.0	3	1.0858818986021495	-3.4926986823156483	220.0	6	1.11	0.95				
	182	2	0.0	0.0	0.0	0.0	5	0.9779651974543093	-19.502414715362484	400.0	6	1.05	0.95				
	183	1	127.49999999999999	0.0	0.0	0.0	3	1.050000010489542	-6.2883484301021015	400.0	6	1.05	0.95				
	184	2	269.739	42.754999999999995	0.0	0.0	2	1.0954958363056597	0.467066880090764	220.0	6	1.11	0.95				
	185	2	308.0655	31.195000000000007	0.0	0.0	2	0.9950412692369003	-5.097309170088433	400.0	6	1.05	0.95				
	186	2	28.330499999999997	0.8500000000000001	0.0	0.0	5	1.0639275229338747	-24.81056606693948	220.0	6	1.11	0.95				
	187	1	6.052	1.275	0.0	0.0	1	1.0690311971315638	-19.11167719084965	110.0	1	1.12	0.95				
	188	1	6.4855	0.8500000000000001	0.0	0.0	1	1.0575742809616226	-23.76215455347349	110.0	1	1.12	0.95				
	189	1	8.304499999999999	7.394999999999999	0.0	0.0	1	1.0116809852573971	-22.355797664250478	110.0	1	1.12	0.95				
	190	1	5.202	1.275	0.0	0.0	1	1.10359260059019	-2.9661724465182595	110.0	1	1.12	0.95				
	191	1	5.202	1.3599999999999999	0.0	0.0	1	1.086898853477861	-3.731993360781971	110.0	1	1.12	0.95				
	192	2	25.976	10.2	0.0	0.0	1	1.1188950956967432	-15.404756322303415	110.0	1	1.12	0.95				
	193	1	12.988	2.55	0.0	0.0	1	1.1178790213900012	-15.363221938309062	110.0	1	1.12	0.95				
	194	1	0.0	0.0	0.0	0.0	1	1.1178935324972472	-15.577014978535162	110.0	1	1.12	0.95				
	195	1	6.9190000000000005	1.7000000000000002	0.0	0.0	1	1.0821529436320443	-19.80941664311929	110.0	1	1.12	0.95				
	196	2	5.882	1.275	0.0	0.0	1	1.033049479240167	-27.50303699915564	110.0	1	1.12	0.95				
	197	1	5.882	1.275	0.0	0.0	1	1.0796389123599488	-11.470012605772673	110.0	1	1.12	0.95				
	198	2	10.472000000000001	1.445	0.0	0.0	1	1.0722804982974266	-20.339187715787297	110.0	1	1.12	0.95				
	199	1	1.2155	0.42500000000000004	0.0	0.0	1	1.1100074614624886	-5.15910846524055	110.0	1	1.12	0.95				
	200	1	0.918	0.42500000000000004	0.0	0.0	1	1.1033952010314716	-19.24627909972753	110.0	1	1.12	0.95				
...
];

%% generator data
%    bus    Pg    Qg    Qmax    Qmin    Vg    mBase    status    Pmax    Pmin    Pc1    Pc2    Qc1min    Qc1max    Qc2min    Qc2max    ramp_agc    ramp_10    ramp_30    ramp_q    apf
mpc.gen = [
	10	400.00000397652065	79.08824901077944	120.0	0.0	1.0	168.0	1	400.0	0.0	0.0	0.0	0.0	0.0	0.0	0.0	0.0	0.0	0.0	0.0	0.0				
	16	720.0000071945922	163.20076306726156	440.00000000000006	-40.0	1.0	823.0	1	720.0	0.0	0.0	0.0	0.0	0.0	0.0	0.0	0.0	0.0	0.0	0.0	0.0				
	17	1080.0000107852818	193.40247840409816	660.0	-60.0	1.0	1234.0	1	1080.0	0.0	0.0	0.0	0.0	0.0	0.0	0.0	0.0	0.0	0.0	0.0	0.0				
	18	1349.3608794462116	-89.33896363142766	1540.0	-140.0	1.0	2879.0	1	2520.0	0.0	0.0	0.0	0.0	0.0	0.0	0.0	0.0	0.0	0.0	0.0	0.0				
	29	-9.815589173193983e-7	59.543901860195625	240.0	0.0	1.0	511.0	1	400.0	0.0	0.0	0.0	0.0	0.0	0.0	0.0	0.0	0.0	0.0	0.0	0.0				
	30	-9.860126545219158e-7	0.0005934649850553851	240.0	0.0	1.0	511.0	1	800.0	0.0	0.0	0.0	0.0	0.0	0.0	0.0	0.0	0.0	0.0	0.0	0.0				
	31	1000.0000099931432	-2.619963744268314e-7	350.0	0.0	1.0	420.0	1	1000.0	0.0	0.0	0.0	0.0	0.0	0.0	0.0	0.0	0.0	0.0	0.0	0.0				
	41	200.00000198492395	-7.758511173773357e-7	120.0	0.0	1.0	241.0	1	200.0	0.0	0.0	0.0	0.0	0.0	0.0	0.0	0.0	0.0	0.0	0.0	0.0				
	42	-9.7512395945286e-7	-7.75279310986774e-7	120.0	0.0	1.0	241.0	1	409.99999999999994	0.0	0.0	0.0	0.0	0.0	0.0	0.0	0.0	0.0	0.0	0.0	0.0				
	43	410.0000040922664	-8.965790425846467e-7	240.0	0.0	1.0	482.0	1	409.99999999999994	0.0	0.0	0.0	0.0	0.0	0.0	0.0	0.0	0.0	0.0	0.0	0.0				
	44	410.00000409042514	-8.9672583561277e-7	240.0	0.0	1.0	482.0	1	409.99999999999994	0.0	0.0	0.0	0.0	0.0	0.0	0.0	0.0	0.0	0.0	0.0	0.0				
	45	42.20000099684977	20.999993067489832	21.0	0.0	1.0	49.0	1	42.2	0.0	0.0	0.0	0.0	0.0	0.0	0.0	0.0	0.0	0.0	0.0	0.0				
	63	650.0000064920902	109.87627548014291	302.0	0.0	1.0	473.0	1	650.0	0.0	0.0	0.0	0.0	0.0	0.0	0.0	0.0	0.0	0.0	0.0	0.0				
	64	450.0000044897667	77.9674786879925	311.0	2.0	1.0	475.0	1	450.0	0.0	0.0	0.0	0.0	0.0	0.0	0.0	0.0	0.0	0.0	0.0	0.0				
	67	750.0000074912067	196.24687429811502	449.0	0.0	1.0	864.0	1	750.0	0.0	0.0	0.0	0.0	0.0	0.0	0.0	0.0	0.0	0.0	0.0	0.0				
	83	225.00000224368097	156.60400389299235	190.0	-89.0	1.0	239.0	1	225.0	0.0	0.0	0.0	0.0	0.0	0.0	0.0	0.0	0.0	0.0	0.0	0.0				
	84	225.00000223954356	-88.99284922995882	190.0	-89.0	1.0	251.0	1	225.0	0.0	0.0	0.0	0.0	0.0	0.0	0.0	0.0	0.0	0.0	0.0	0.0				
	85	120.00000118356355	124.99947956664938	125.0	-50.0	1.0	133.0	1	120.0	0.0	0.0	0.0	0.0	0.0	0.0	0.0	0.0	0.0	0.0	0.0	0.0				
	86	120.00000111407758	-24.092391102298823	125.0	-50.0	1.0	133.0	1	120.0	0.0	0.0	0.0	0.0	0.0	0.0	0.0	0.0	0.0	0.0	0.0	0.0				
	93	120.00000118440298	28.140377479050116	90.0	5.0	1.0	123.0	1	120.0	0.0	0.0	0.0	0.0	0.0	0.0	0.0	0.0	0.0	0.0	0.0	0.0				
	95	110.00000107361431	27.00000257591019	68.0	27.0	1.0	105.0	1	110.00000000000001	0.0	0.0	0.0	0.0	0.0	0.0	0.0	0.0	0.0	0.0	0.0	0.0				
	97	87.60000099646983	27.00000308318304	68.0	27.0	1.0	105.0	1	87.6	0.0	0.0	0.0	0.0	0.0	0.0	0.0	0.0	0.0	0.0	0.0	0.0				
	103	-9.822111877340387e-7	176.99337598358704	177.0	-82.0	1.0	239.0	1	400.0	0.0	0.0	0.0	0.0	0.0	0.0	0.0	0.0	0.0	0.0	0.0	0.0				
	104	225.00000222900195	-24.63675167247413	379.0	-177.0	1.0	490.0	1	225.0	0.0	0.0	0.0	0.0	0.0	0.0	0.0	0.0	0.0	0.0	0.0	0.0				
	105	430.00000428330895	-164.99999972691936	353.0	-165.0	1.0	502.0	1	430.0	0.0	0.0	0.0	0.0	0.0	0.0	0.0	0.0	0.0	0.0	0.0	0.0				
	109	250.00000249648892	18.092952146233497	65.0	0.0	1.0	277.0	1	250.0	0.0	0.0	0.0	0.0	0.0	0.0	0.0	0.0	0.0	0.0	0.0	0.0				
	110	250.0000024964889	18.233214940836415	65.0	0.0	1.0	280.0	1	250.0	0.0	0.0	0.0	0.0	0.0	0.0	0.0	0.0	0.0	0.0	0.0	0.0				
	111	47.95429646786384	83.79837866698573	270.0	0.0	1.0	401.0	1	360.0	0.0	0.0	0.0	0.0	0.0	0.0	0.0	0.0	0.0	0.0	0.0	0.0				
	123	-9.76828908800892e-7	39.99970441115087	40.0	0.0	1.0	98.0	1	110.00000000000001	0.0	0.0	0.0	0.0	0.0	0.0	0.0	0.0	0.0	0.0	0.0	0.0				
	124	125.00000124222441	38.0167847567763	90.0	0.0	1.0	132.0	1	125.0	0.0	0.0	0.0	0.0	0.0	0.0	0.0	0.0	0.0	0.0	0.0	0.0				
	125	89.18619080590939	141.451395001612	360.0	0.0	1.0	654.0	1	860.0	0.0	0.0	0.0	0.0	0.0	0.0	0.0	0.0	0.0	0.0	0.0	0.0				
	127	690.0000068923335	-6.036010608471927e-7	360.0	0.0	1.0	540.0	1	690.0	0.0	0.0	0.0	0.0	0.0	0.0	0.0	0.0	0.0	0.0	0.0	0.0				
	131	232.2288940843741	0.0006219485364458297	360.0	0.0	1.0	696.0	1	1060.0	0.0	0.0	0.0	0.0	0.0	0.0	0.0	0.0	0.0	0.0	0.0	0.0				
	132	-9.616171147122165e-7	238.9858990477944	480.0	0.0	1.0	732.0	1	600.0	0.0	0.0	0.0	0.0	0.0	0.0	0.0	0.0	0.0	0.0	0.0	0.0				
	139	-9.451986407515697e-7	22.502537459123424	360.0	0.0	1.0	714.0	1	600.0	0.0	0.0	0.0	0.0	0.0	0.0	0.0	0.0	0.0	0.0	0.0	0.0				
	140	200.0000019900062	119.99938142180983	120.0	0.0	1.0	240.0	1	200.0	0.0	0.0	0.0	0.0	0.0	0.0	0.0	0.0	0.0	0.0	0.0	0.0				
	176	600.0000059968944	-119.99980827568284	220.00000000000003	-120.0	1.0	430.0	1	600.0	0.0	0.0	0.0	0.0	0.0	0.0	0.0	0.0	0.0	0.0	0.0	0.0				
	177	200.00000199689444	85.39656294398117	220.00000000000003	-120.0	1.0	430.0	1	200.0	0.0	0.0	0.0	0.0	0.0	0.0	0.0	0.0	0.0	0.0	0.0	0.0				
	180	0.0	-23.485720844376477	99999.0	-99999.0	1.0	7485.0	1	0.0	0.0	0.0	0.0	0.0	0.0	0.0	0.0	0.0	0.0	0.0	0.0	0.0				
	181	175.00000174673792	15.254257005781543	99999.0	-99999.0	1.0	210.0	1	175.0	0.0	0.0	0.0	0.0	0.0	0.0	0.0	0.0	0.0	0.0	0.0	0.0				
	182	307.5900030729915	4.7350072136121035	99999.0	-99999.0	1.0	13465.0	1	307.59	0.0	0.0	0.0	0.0	0.0	0.0	0.0	0.0	0.0	0.0	0.0	0.0				
	184	0.0	57.50877132668215	99999.0	-99999.0	1.0	8353.0	1	0.0	0.0	0.0	0.0	0.0	0.0	0.0	0.0	0.0	0.0	0.0	0.0	0.0				
	185	0.0	-21.88685226977489	99999.0	-99999.0	1.0	14254.0	1	0.0	0.0	0.0	0.0	0.0	0.0	0.0	0.0	0.0	0.0	0.0	0.0	0.0				
	186	0.0	-3.9827877512613283	99999.0	-99999.0	1.0	7401.0	1	0.0	0.0	0.0	0.0	0.0	0.0	0.0	0.0	0.0	0.0	0.0	0.0	0.0				
	192	95.0000009968269	16.79498053875675	50.0	0.0	1.0	114.0	1	95.0	0.0	0.0	0.0	0.0	0.0	0.0	0.0	0.0	0.0	0.0	0.0	0.0				
	196	0.9000009972475338	1.0000009066895195	1.0	0.0	1.0	1.0	1	0.9000000000000001	0.0	0.0	0.0	0.0	0.0	0.0	0.0	0.0	0.0	0.0	0.0	0.0				
	198	0.8000009969773585	0.9999985746509452	1.0	0.0	1.0	1.0	1	0.8	0.0	0.0	0.0	0.0	0.0	0.0	0.0	0.0	0.0	0.0	0.0	0.0				
	205	15.000000996814347	8.535913777832649	10.0	0.0	1.0	18.0	1	15.0	0.0	0.0	0.0	0.0	0.0	0.0	0.0	0.0	0.0	0.0	0.0	0.0				
	213	11.000000997019638	8.00000013917897	8.0	0.0	1.0	13.0	1	11.0	0.0	0.0	0.0	0.0	0.0	0.0	0.0	0.0	0.0	0.0	0.0	0.0				
	264	2.500000997070692	3.682531582047597e-6	2.0	0.0	1.0	3.0	1	2.5	0.0	0.0	0.0	0.0	0.0	0.0	0.0	0.0	0.0	0.0	0.0	0.0				
	269	6.000000996868659	4.9999981606843935	5.0	0.0	1.0	7.0	1	6.0	0.0	0.0	0.0	0.0	0.0	0.0	0.0	0.0	0.0	0.0	0.0	0.0				
	277	70.00000099677946	40.75743976868342	42.0	0.0	1.0	84.0	1	70.0	0.0	0.0	0.0	0.0	0.0	0.0	0.0	0.0	0.0	0.0	0.0	0.0				
	278	60.000000996806854	7.810732730303414	40.0	0.0	1.0	72.0	1	60.0	0.0	0.0	0.0	0.0	0.0	0.0	0.0	0.0	0.0	0.0	0.0	0.0				
	279	60.0000009967953	17.971412982808634	40.0	0.0	1.0	72.0	1	60.0	0.0	0.0	0.0	0.0	0.0	0.0	0.0	0.0	0.0	0.0	0.0	0.0				
	281	120.00000119675151	27.20250440881439	90.0	0.0	1.0	144.0	1	120.0	0.0	0.0	0.0	0.0	0.0	0.0	0.0	0.0	0.0	0.0	0.0	0.0				
	282	40.00000099675529	15.866687296173321	40.0	0.0	1.0	48.0	1	40.0	0.0	0.0	0.0	0.0	0.0	0.0	0.0	0.0	0.0	0.0	0.0	0.0				
	289	2.5000009967616665	2.999997109355347	3.0	0.0	1.0	3.0	1	2.5	0.0	0.0	0.0	0.0	0.0	0.0	0.0	0.0	0.0	0.0	0.0	0.0				
	294	2.0000009969028145	0.9999992870657618	1.0	0.0	1.0	2.0	1	2.0	0.0	0.0	0.0	0.0	0.0	0.0	0.0	0.0	0.0	0.0	0.0	0.0				
	314	1.5000009969557822	1.0000001203459126	1.0	0.0	1.0	2.0	1	1.5	0.0	0.0	0.0	0.0	0.0	0.0	0.0	0.0	0.0	0.0	0.0	0.0				
	328	44.000000996862696	-8.496832617400571e-7	21.0	0.0	1.0	53.0	1	44.0	0.0	0.0	0.0	0.0	0.0	0.0	0.0	0.0	0.0	0.0	0.0	0.0				
	329	44.000000996982315	17.974423908268964	21.0	0.0	1.0	53.0	1	44.0	0.0	0.0	0.0	0.0	0.0	0.0	0.0	0.0	0.0	0.0	0.0	0.0				
	330	44.00000099682508	-9.044096433905157e-7	21.0	0.0	1.0	53.0	1	44.0	0.0	0.0	0.0	0.0	0.0	0.0	0.0	0.0	0.0	0.0	0.0	0.0				
	331	43.000000996972084	13.410773513974691	21.0	0.0	1.0	52.0	1	43.0	0.0	0.0	0.0	0.0	0.0	0.0	0.0	0.0	0.0	0.0	0.0	0.0				
	334	1.5000009969761905	-7.37382453650369e-7	1.0	0.0	1.0	2.0	1	1.5	0.0	0.0	0.0	0.0	0.0	0.0	0.0	0.0	0.0	0.0	0.0	0.0				
	346	133.86811308825477	31.823159105076876	120.0	0.0	1.0	180.0	1	200.0	0.0	0.0	0.0	0.0	0.0	0.0	0.0	0.0	0.0	0.0	0.0	0.0				
	347	10.000000996861889	7.626521244170132e-7	15.0	0.0	1.0	12.0	1	10.0	0.0	0.0	0.0	0.0	0.0	0.0	0.0	0.0	0.0	0.0	0.0	0.0				
	359	1.5000009969840633	6.66707670235499e-6	1.0	0.0	1.0	2.0	1	1.5	0.0	0.0	0.0	0.0	0.0	0.0	0.0	0.0	0.0	0.0	0.0	0.0				
	365	5.100000996916118	3.0000003135277264	3.0	0.0	1.0	6.0	1	5.1	0.0	0.0	0.0	0.0	0.0	0.0	0.0	0.0	0.0	0.0	0.0	0.0				
	382	8.000000996973597	5.0000004891787	5.0	0.0	1.0	10.0	1	8.0	0.0	0.0	0.0	0.0	0.0	0.0	0.0	0.0	0.0	0.0	0.0	0.0				
	383	8.00000099696692	5.000000595036495	5.0	0.0	1.0	10.0	1	8.0	0.0	0.0	0.0	0.0	0.0	0.0	0.0	0.0	0.0	0.0	0.0	0.0				
	385	6.000000996998483	4.000000455181796	4.0	0.0	1.0	7.0	1	6.0	0.0	0.0	0.0	0.0	0.0	0.0	0.0	0.0	0.0	0.0	0.0	0.0				
	390	4.500000996708705	3.0000001492936126	3.0	0.0	1.0	5.0	1	4.5	0.0	0.0	0.0	0.0	0.0	0.0	0.0	0.0	0.0	0.0	0.0	0.0				
	395	10.000000996915052	-8.549526536126081e-7	8.0	0.0	1.0	12.0	1	10.0	0.0	0.0	0.0	0.0	0.0	0.0	0.0	0.0	0.0	0.0	0.0	0.0				
	404	3.000000996737488	3.000000448540492	3.0	0.0	1.0	4.0	1	3.0	0.0	0.0	0.0	0.0	0.0	0.0	0.0	0.0	0.0	0.0	0.0	0.0				
	426	3.20000099702849	2.000000618712659	2.0	0.0	1.0	4.0	1	3.2	0.0	0.0	0.0	0.0	0.0	0.0	0.0	0.0	0.0	0.0	0.0	0.0				
	444	1.0000009967566712	-9.070580017049173e-7	1.0	0.0	1.0	1.0	1	1.0	0.0	0.0	0.0	0.0	0.0	0.0	0.0	0.0	0.0	0.0	0.0	0.0				
	451	4.500000996924388	3.00000043349536	3.0	0.0	1.0	5.0	1	4.5	0.0	0.0	0.0	0.0	0.0	0.0	0.0	0.0	0.0	0.0	0.0	0.0				
	482	1.0000009967548784	1.0000004438799521	1.0	0.0	1.0	1.0	1	1.0	0.0	0.0	0.0	0.0	0.0	0.0	0.0	0.0	0.0	0.0	0.0	0.0				
	492	2.0000009969410004	-6.500261449783396e-7	1.0	0.0	1.0	2.0	1	2.0	0.0	0.0	0.0	0.0	0.0	0.0	0.0	0.0	0.0	0.0	0.0	0.0				
	493	234.00000233685952	67.45250116563172	130.0	0.0	1.0	281.0	1	234.0	0.0	0.0	0.0	0.0	0.0	0.0	0.0	0.0	0.0	0.0	0.0	0.0				
	494	234.00000233691478	88.52805923709958	130.0	0.0	1.0	281.0	1	234.0	0.0	0.0	0.0	0.0	0.0	0.0	0.0	0.0	0.0	0.0	0.0	0.0				
	514	115.00000114696867	74.19445278456978	90.0	0.0	1.0	138.0	1	114.99999999999999	0.0	0.0	0.0	0.0	0.0	0.0	0.0	0.0	0.0	0.0	0.0	0.0				
	515	115.00000114697431	90.0000003329382	90.0	0.0	1.0	138.0	1	114.99999999999999	0.0	0.0	0.0	0.0	0.0	0.0	0.0	0.0	0.0	0.0	0.0	0.0				
	525	6.000000996832351	4.0000003445760015	4.0	0.0	1.0	7.0	1	6.0	0.0	0.0	0.0	0.0	0.0	0.0	0.0	0.0	0.0	0.0	0.0	0.0				
	536	6.000000997028321	5.999999863944523	6.0	0.0	1.0	7.0	1	6.0	0.0	0.0	0.0	0.0	0.0	0.0	0.0	0.0	0.0	0.0	0.0	0.0				
	537	3.500000997073358	0.9475593828986679	3.0	0.0	1.0	4.0	1	3.5000000000000004	0.0	0.0	0.0	0.0	0.0	0.0	0.0	0.0	0.0	0.0	0.0	0.0				
	556	2.7000009969472676	0.9999984330594749	1.0	0.0	1.0	3.0	1	2.7	0.0	0.0	0.0	0.0	0.0	0.0	0.0	0.0	0.0	0.0	0.0	0.0				
	580	1.6000009968661602	0.9999348630835845	1.0	0.0	1.0	2.0	1	1.6	0.0	0.0	0.0	0.0	0.0	0.0	0.0	0.0	0.0	0.0	0.0	0.0				
	584	2.7000009969373857	1.241931461355119	2.0	0.0	1.0	3.0	1	2.7	0.0	0.0	0.0	0.0	0.0	0.0	0.0	0.0	0.0	0.0	0.0	0.0				
	585	4.0000009969354	1.06413409292706	2.0	0.0	1.0	5.0	1	4.0	0.0	0.0	0.0	0.0	0.0	0.0	0.0	0.0	0.0	0.0	0.0	0.0				
	607	0.8000009968035352	0.0	0.0	0.0	1.0	1.0	1	0.8	0.0	0.0	0.0	0.0	0.0	0.0	0.0	0.0	0.0	0.0	0.0	0.0				
	612	-9.442414758465957e-7	119.99780544091965	120.0	0.0	1.0	256.0	1	200.0	0.0	0.0	0.0	0.0	0.0	0.0	0.0	0.0	0.0	0.0	0.0	0.0				
	613	200.00000193928403	16.541122938710195	120.0	0.0	1.0	256.0	1	200.0	0.0	0.0	0.0	0.0	0.0	0.0	0.0	0.0	0.0	0.0	0.0	0.0				
	615	1.4000009968025646	0.16149395218456447	1.0	0.0	1.0	2.0	1	1.4	0.0	0.0	0.0	0.0	0.0	0.0	0.0	0.0	0.0	0.0	0.0	0.0				
	623	7.600000996934169	4.999998840862793	5.0	0.0	1.0	9.0	1	7.6	0.0	0.0	0.0	0.0	0.0	0.0	0.0	0.0	0.0	0.0	0.0	0.0				
	639	9.600000996871199	3.9999958892693104	4.0	0.0	1.0	12.0	1	9.6	0.0	0.0	0.0	0.0	0.0	0.0	0.0	0.0	0.0	0.0	0.0	0.0				
	651	4.700000996898915	1.9999981709120385	2.0	0.0	1.0	6.0	1	4.7	0.0	0.0	0.0	0.0	0.0	0.0	0.0	0.0	0.0	0.0	0.0	0.0				
	654	1.4000009967960036	-6.678100432861487e-7	1.0	0.0	1.0	2.0	1	1.4	0.0	0.0	0.0	0.0	0.0	0.0	0.0	0.0	0.0	0.0	0.0	0.0				
	664	6.2000009967917435	1.3785661403800622	6.0	0.0	1.0	7.0	1	6.2	0.0	0.0	0.0	0.0	0.0	0.0	0.0	0.0	0.0	0.0	0.0	0.0				
	670	2.700000996808374	-8.907945697296293e-7	2.0	0.0	1.0	3.0	1	2.7	0.0	0.0	0.0	0.0	0.0	0.0	0.0	0.0	0.0	0.0	0.0	0.0				
	674	1.0000009969483472	0.0	0.0	0.0	1.0	1.0	1	1.0	0.0	0.0	0.0	0.0	0.0	0.0	0.0	0.0	0.0	0.0	0.0	0.0				
	688	-9.584477652327494e-7	-2.3749721165261554e-7	120.0	0.0	1.0	242.0	1	202.0	0.0	0.0	0.0	0.0	0.0	0.0	0.0	0.0	0.0	0.0	0.0	0.0				
	692	1.400000996882304	0.9999917396909838	1.0	0.0	1.0	2.0	1	1.4	0.0	0.0	0.0	0.0	0.0	0.0	0.0	0.0	0.0	0.0	0.0	0.0				
	699	3.8000009968374466	-8.780883774232856e-7	2.0	0.0	1.0	5.0	1	3.8	0.0	0.0	0.0	0.0	0.0	0.0	0.0	0.0	0.0	0.0	0.0	0.0				
	712	1.200000996934994	0.9999995494630374	1.0	0.0	1.0	1.0	1	1.2	0.0	0.0	0.0	0.0	0.0	0.0	0.0	0.0	0.0	0.0	0.0	0.0				
	730	6.900000996765643	-8.990434408268434e-7	3.0	0.0	1.0	8.0	1	6.9	0.0	0.0	0.0	0.0	0.0	0.0	0.0	0.0	0.0	0.0	0.0	0.0				
	732	1.1000009969077413	-7.602873449180147e-7	1.0	0.0	1.0	1.0	1	1.1	0.0	0.0	0.0	0.0	0.0	0.0	0.0	0.0	0.0	0.0	0.0	0.0				
	735	4.1000009968836615	1.9999977099676074	2.0	0.0	1.0	5.0	1	4.1	0.0	0.0	0.0	0.0	0.0	0.0	0.0	0.0	0.0	0.0	0.0	0.0				
	740	4.000000996684534	-9.198039223473323e-7	1.0	0.0	1.0	5.0	1	4.0	0.0	0.0	0.0	0.0	0.0	0.0	0.0	0.0	0.0	0.0	0.0	0.0				
	744	134.0000013366128	-8.951661461387429e-7	60.0	0.0	1.0	161.0	1	134.0	0.0	0.0	0.0	0.0	0.0	0.0	0.0	0.0	0.0	0.0	0.0	0.0				
	754	80.00000098614544	-5.378998346362266e-7	30.0	0.0	1.0	54.0	1	80.0	0.0	0.0	0.0	0.0	0.0	0.0	0.0	0.0	0.0	0.0	0.0	0.0				
	755	-9.653569678423029e-7	4.004091410870779e-7	80.0	0.0	1.0	110.0	1	250.0	0.0	0.0	0.0	0.0	0.0	0.0	0.0	0.0	0.0	0.0	0.0	0.0				
	760	3.1000009969069557	1.748832370837401e-6	2.0	0.0	1.0	4.0	1	3.1	0.0	0.0	0.0	0.0	0.0	0.0	0.0	0.0	0.0	0.0	0.0	0.0				
	766	2.1000009969239795	4.435280615857941e-6	1.0	0.0	1.0	3.0	1	2.1	0.0	0.0	0.0	0.0	0.0	0.0	0.0	0.0	0.0	0.0	0.0	0.0				
	784	0.7000009968861871	0.0	0.0	0.0	1.0	1.0	1	0.7	0.0	0.0	0.0	0.0	0.0	0.0	0.0	0.0	0.0	0.0	0.0	0.0				
	790	49.800000996706075	35.0	35.0	35.0	1.0	60.0	1	49.8	0.0	0.0	0.0	0.0	0.0	0.0	0.0	0.0	0.0	0.0	0.0	0.0				
	795	1.890000996591989	1.0	1.0	1.0	1.0	2.0	1	1.8900000000000001	0.0	0.0	0.0	0.0	0.0	0.0	0.0	0.0	0.0	0.0	0.0	0.0				
	798	2.9900009966402945	3.0	3.0	3.0	1.0	4.0	1	2.99	0.0	0.0	0.0	0.0	0.0	0.0	0.0	0.0	0.0	0.0	0.0	0.0				
	814	44.92000099660584	13.672751168586444	42.0	0.0	1.0	54.0	1	44.92	0.0	0.0	0.0	0.0	0.0	0.0	0.0	0.0	0.0	0.0	0.0	0.0				
	834	55.00000097326213	82.9999915855727	83.0	0.0	1.0	110.0	1	55.00000000000001	0.0	0.0	0.0	0.0	0.0	0.0	0.0	0.0	0.0	0.0	0.0	0.0				
	878	2.990000996498111	0.0	0.0	0.0	1.0	4.0	1	2.99	0.0	0.0	0.0	0.0	0.0	0.0	0.0	0.0	0.0	0.0	0.0	0.0				
	884	2.4900009967443735	0.0	0.0	0.0	1.0	3.0	1	2.49	0.0	0.0	0.0	0.0	0.0	0.0	0.0	0.0	0.0	0.0	0.0	0.0				
	892	31.870000996701688	28.745375196955685	42.0	6.0	1.0	38.0	1	31.869999999999997	0.0	0.0	0.0	0.0	0.0	0.0	0.0	0.0	0.0	0.0	0.0	0.0				
	895	8.960000996628011	7.000000000000001	7.000000000000001	7.000000000000001	1.0	11.0	1	8.96	0.0	0.0	0.0	0.0	0.0	0.0	0.0	0.0	0.0	0.0	0.0	0.0				
	901	3.6800009965849667	2.0	2.0	2.0	1.0	4.0	1	3.6799999999999997	0.0	0.0	0.0	0.0	0.0	0.0	0.0	0.0	0.0	0.0	0.0	0.0				
	910	4.58000099660861	3.0	3.0	3.0	1.0	6.0	1	4.58	0.0	0.0	0.0	0.0	0.0	0.0	0.0	0.0	0.0	0.0	0.0	0.0				
	911	370.00000368950407	89.14781442887846	224.00000000000003	0.0	1.0	415.0	1	370.0	0.0	0.0	0.0	0.0	0.0	0.0	0.0	0.0	0.0	0.0	0.0	0.0				
	912	216.1308978402935	95.92691413899449	224.00000000000003	0.0	1.0	415.0	1	370.0	0.0	0.0	0.0	0.0	0.0	0.0	0.0	0.0	0.0	0.0	0.0	0.0				
	914	15.930000996655938	10.0	10.0	10.0	1.0	19.0	1	15.93	0.0	0.0	0.0	0.0	0.0	0.0	0.0	0.0	0.0	0.0	0.0	0.0				
	917	2.0900009965073676	0.0	0.0	0.0	1.0	3.0	1	2.09	0.0	0.0	0.0	0.0	0.0	0.0	0.0	0.0	0.0	0.0	0.0	0.0				
	919	21.910000995977786	12.0	12.0	12.0	1.0	26.0	1	21.91	0.0	0.0	0.0	0.0	0.0	0.0	0.0	0.0	0.0	0.0	0.0	0.0				
	920	1.990000996471435	0.0	0.0	0.0	1.0	2.0	1	1.9900000000000002	0.0	0.0	0.0	0.0	0.0	0.0	0.0	0.0	0.0	0.0	0.0	0.0				
	929	63.730000996529036	29.00000046455772	50.0	28.999999999999996	1.0	77.0	1	63.73	0.0	0.0	0.0	0.0	0.0	0.0	0.0	0.0	0.0	0.0	0.0	0.0				
	959	2.49000099684373	1.0	1.0	1.0	1.0	3.0	1	2.49	0.0	0.0	0.0	0.0	0.0	0.0	0.0	0.0	0.0	0.0	0.0	0.0				
	968	0.7000009968203885	0.0	0.0	0.0	1.0	1.0	1	0.7	0.0	0.0	0.0	0.0	0.0	0.0	0.0	0.0	0.0	0.0	0.0	0.0				
	993	3.9800009968825836	1.0	1.0	1.0	1.0	5.0	1	3.9800000000000004	0.0	0.0	0.0	0.0	0.0	0.0	0.0	0.0	0.0	0.0	0.0	0.0				
	994	1.9900009968825862	1.0	1.0	1.0	1.0	2.0	1	1.9900000000000002	0.0	0.0	0.0	0.0	0.0	0.0	0.0	0.0	0.0	0.0	0.0	0.0				
	995	-9.75959849564903e-7	37.99999771672502	38.0	0.0	1.0	60.0	1	100.0	0.0	0.0	0.0	0.0	0.0	0.0	0.0	0.0	0.0	0.0	0.0	0.0				
	996	-9.61210131315337e-7	4.457884163486909	38.0	0.0	1.0	60.0	1	50.0	0.0	0.0	0.0	0.0	0.0	0.0	0.0	0.0	0.0	0.0	0.0	0.0				
	997	-9.726407960589397e-7	37.999999499710874	38.0	0.0	1.0	60.0	1	50.0	0.0	0.0	0.0	0.0	0.0	0.0	0.0	0.0	0.0	0.0	0.0	0.0				
	1004	4.280000996706867	3.0	3.0	3.0	1.0	5.0	1	4.28	0.0	0.0	0.0	0.0	0.0	0.0	0.0	0.0	0.0	0.0	0.0	0.0				
	1024	0.10000099677570648	0.0	0.0	0.0	1.0	0.0	1	0.1	0.0	0.0	0.0	0.0	0.0	0.0	0.0	0.0	0.0	0.0	0.0	0.0				
	1027	24.900000996509316	13.0	13.0	13.0	1.0	30.0	1	24.9	0.0	0.0	0.0	0.0	0.0	0.0	0.0	0.0	0.0	0.0	0.0	0.0				
	1028	2.9900009965091257	3.0	3.0	3.0	1.0	4.0	1	2.99	0.0	0.0	0.0	0.0	0.0	0.0	0.0	0.0	0.0	0.0	0.0	0.0				
	1029	24.900000996523627	14.000000000000002	14.000000000000002	14.000000000000002	1.0	30.0	1	24.9	0.0	0.0	0.0	0.0	0.0	0.0	0.0	0.0	0.0	0.0	0.0	0.0				
	1053	59.76000099660739	24.626884315455644	53.0	0.0	1.0	72.0	1	59.760000000000005	0.0	0.0	0.0	0.0	0.0	0.0	0.0	0.0	0.0	0.0	0.0	0.0				
	1054	29.88000099682726	1.2429161499583206e-6	31.0	0.0	1.0	36.0	1	29.880000000000003	0.0	0.0	0.0	0.0	0.0	0.0	0.0	0.0	0.0	0.0	0.0	0.0				
	1105	7.970000996690402	10.0	10.0	10.0	1.0	10.0	1	7.969999999999999	0.0	0.0	0.0	0.0	0.0	0.0	0.0	0.0	0.0	0.0	0.0	0.0				
	1106	22.910000996694343	13.0	13.0	13.0	1.0	28.0	1	22.91	0.0	0.0	0.0	0.0	0.0	0.0	0.0	0.0	0.0	0.0	0.0	0.0				
	1107	10.56000099657509	3.0	3.0	3.0	1.0	13.0	1	10.56	0.0	0.0	0.0	0.0	0.0	0.0	0.0	0.0	0.0	0.0	0.0	0.0				
	1138	44.82000099651856	24.658376859454513	41.0	0.0	1.0	54.0	1	44.82	0.0	0.0	0.0	0.0	0.0	0.0	0.0	0.0	0.0	0.0	0.0	0.0				
	1140	230.00000228600646	51.57143596101743	199.0	-87.0	1.0	252.0	1	229.99999999999997	0.0	0.0	0.0	0.0	0.0	0.0	0.0	0.0	0.0	0.0	0.0	0.0				
	1141	-9.258146317909637e-7	61.04461540849954	190.0	-89.0	1.0	251.0	1	225.0	0.0	0.0	0.0	0.0	0.0	0.0	0.0	0.0	0.0	0.0	0.0	0.0				
	1175	37.84000099674505	20.0	20.0	20.0	1.0	45.0	1	37.84	0.0	0.0	0.0	0.0	0.0	0.0	0.0	0.0	0.0	0.0	0.0	0.0				
	1182	-9.82620284602554e-7	10.048444203263458	125.0	-50.0	1.0	133.0	1	120.0	0.0	0.0	0.0	0.0	0.0	0.0	0.0	0.0	0.0	0.0	0.0	0.0				
	1183	120.00000119273999	10.378408390938846	125.0	-50.0	1.0	133.0	1	120.0	0.0	0.0	0.0	0.0	0.0	0.0	0.0	0.0	0.0	0.0	0.0	0.0				
	1184	-9.146786416955459e-7	71.80171264021301	125.0	-50.0	1.0	133.0	1	120.0	0.0	0.0	0.0	0.0	0.0	0.0	0.0	0.0	0.0	0.0	0.0	0.0				
	1191	106.56000106225183	24.66411387266222	129.0	-47.0	1.0	128.0	1	106.56000000000002	0.0	0.0	0.0	0.0	0.0	0.0	0.0	0.0	0.0	0.0	0.0	0.0				
	1192	250.00000249330813	45.831341736194084	125.0	-50.0	1.0	123.0	1	250.0	0.0	0.0	0.0	0.0	0.0	0.0	0.0	0.0	0.0	0.0	0.0	0.0				
	1201	99.5900009964858	0.007952436930695637	90.0	0.0	1.0	120.0	1	99.59	0.0	0.0	0.0	0.0	0.0	0.0	0.0	0.0	0.0	0.0	0.0	0.0				
	1202	99.5900009964858	54.81728344905776	90.0	0.0	1.0	120.0	1	99.59	0.0	0.0	0.0	0.0	0.0	0.0	0.0	0.0	0.0	0.0	0.0	0.0				
	1203	99.59000099649985	30.375850100424216	90.0	0.0	1.0	120.0	1	99.59	0.0	0.0	0.0	0.0	0.0	0.0	0.0	0.0	0.0	0.0	0.0	0.0				
	1232	51.79000099670568	19.700431546483397	41.0	0.0	1.0	62.0	1	51.790000000000006	0.0	0.0	0.0	0.0	0.0	0.0	0.0	0.0	0.0	0.0	0.0	0.0				
	1233	14.940000996721018	15.957315768989474	41.0	0.0	1.0	18.0	1	14.940000000000001	0.0	0.0	0.0	0.0	0.0	0.0	0.0	0.0	0.0	0.0	0.0	0.0				
	1244	18.920000996651932	20.0	20.0	20.0	1.0	23.0	1	18.92	0.0	0.0	0.0	0.0	0.0	0.0	0.0	0.0	0.0	0.0	0.0	0.0				
	1247	15.930000996651378	12.0	12.0	12.0	1.0	19.0	1	15.93	0.0	0.0	0.0	0.0	0.0	0.0	0.0	0.0	0.0	0.0	0.0	0.0				
	1250	197.1900019685059	49.405125148505796	151.0	0.0	1.0	237.0	1	197.19	0.0	0.0	0.0	0.0	0.0	0.0	0.0	0.0	0.0	0.0	0.0	0.0				
	1268	0.5000009966540306	0.0	0.0	0.0	1.0	1.0	1	0.5	0.0	0.0	0.0	0.0	0.0	0.0	0.0	0.0	0.0	0.0	0.0	0.0				
	1316	1.0000009967517396	0.0	0.0	0.0	1.0	1.0	1	1.0	0.0	0.0	0.0	0.0	0.0	0.0	0.0	0.0	0.0	0.0	0.0	0.0				
	1325	1.3900009965010005	0.0	0.0	0.0	1.0	2.0	1	1.39	0.0	0.0	0.0	0.0	0.0	0.0	0.0	0.0	0.0	0.0	0.0	0.0				
	1349	1.4900009969798298	0.0	0.0	0.0	1.0	2.0	1	1.49	0.0	0.0	0.0	0.0	0.0	0.0	0.0	0.0	0.0	0.0	0.0	0.0				
	1356	1.0000009966657424	2.0	2.0	2.0	1.0	1.0	1	1.0	0.0	0.0	0.0	0.0	0.0	0.0	0.0	0.0	0.0	0.0	0.0	0.0				
	1359	0.8000009967873284	1.0	1.0	1.0	1.0	1.0	1	0.8	0.0	0.0	0.0	0.0	0.0	0.0	0.0	0.0	0.0	0.0	0.0	0.0				
	1393	12.750000996731458	-7.957482601772902e-7	11.0	0.0	1.0	15.0	1	12.75	0.0	0.0	0.0	0.0	0.0	0.0	0.0	0.0	0.0	0.0	0.0	0.0				
	1403	4.280000996613604	1.0	1.0	1.0	1.0	5.0	1	4.28	0.0	0.0	0.0	0.0	0.0	0.0	0.0	0.0	0.0	0.0	0.0	0.0				
	1416	344.8610158845736	28.158987743764385	180.0	10.0	1.0	246.0	1	371.0	0.0	0.0	0.0	0.0	0.0	0.0	0.0	0.0	0.0	0.0	0.0	0.0				
	1417	120.00000110927334	23.705893472234237	120.0	5.0	1.0	123.0	1	120.0	0.0	0.0	0.0	0.0	0.0	0.0	0.0	0.0	0.0	0.0	0.0	0.0				
	1418	20.000000863298933	28.466087606509145	90.0	5.0	1.0	123.0	1	20.0	0.0	0.0	0.0	0.0	0.0	0.0	0.0	0.0	0.0	0.0	0.0	0.0				
	1426	495.0000045103275	29.309447167539183	68.0	27.0	1.0	106.0	1	495.0	0.0	0.0	0.0	0.0	0.0	0.0	0.0	0.0	0.0	0.0	0.0	0.0				
	1429	0.20000099662873505	0.0	0.0	0.0	1.0	0.0	1	0.2	0.0	0.0	0.0	0.0	0.0	0.0	0.0	0.0	0.0	0.0	0.0	0.0				
	1469	0.6000009967660684	0.0	0.0	0.0	1.0	1.0	1	0.6	0.0	0.0	0.0	0.0	0.0	0.0	0.0	0.0	0.0	0.0	0.0	0.0				
	1475	2.0900009966409323	2.0	2.0	2.0	1.0	3.0	1	2.09	0.0	0.0	0.0	0.0	0.0	0.0	0.0	0.0	0.0	0.0	0.0	0.0				
	1504	31.170000996681114	2.0	2.0	2.0	1.0	37.0	1	31.17	0.0	0.0	0.0	0.0	0.0	0.0	0.0	0.0	0.0	0.0	0.0	0.0				
	1505	48.80000099666965	4.0	4.0	4.0	1.0	59.0	1	48.8	0.0	0.0	0.0	0.0	0.0	0.0	0.0	0.0	0.0	0.0	0.0	0.0				
	1514	2.2900009939250943	1.0	1.0	1.0	1.0	3.0	1	2.29	0.0	0.0	0.0	0.0	0.0	0.0	0.0	0.0	0.0	0.0	0.0	0.0				
	1534	0.3000009966528035	0.0	0.0	0.0	1.0	0.0	1	0.3	0.0	0.0	0.0	0.0	0.0	0.0	0.0	0.0	0.0	0.0	0.0	0.0				
	1536	-9.724636261977142e-7	27.003772474751653	190.0	-89.0	1.0	251.0	1	225.0	0.0	0.0	0.0	0.0	0.0	0.0	0.0	0.0	0.0	0.0	0.0	0.0				
	1537	225.00000224279438	56.901455044390815	202.99999999999997	-95.0	1.0	255.0	1	225.0	0.0	0.0	0.0	0.0	0.0	0.0	0.0	0.0	0.0	0.0	0.0	0.0				
	1538	215.00000213885065	20.214280020015014	190.0	-89.0	1.0	255.0	1	215.0	0.0	0.0	0.0	0.0	0.0	0.0	0.0	0.0	0.0	0.0	0.0	0.0				
	1542	8.960000996669589	3.0	3.0	3.0	1.0	11.0	1	8.96	0.0	0.0	0.0	0.0	0.0	0.0	0.0	0.0	0.0	0.0	0.0	0.0				
	1543	1.2000009965389118	0.0	0.0	0.0	1.0	1.0	1	1.2	0.0	0.0	0.0	0.0	0.0	0.0	0.0	0.0	0.0	0.0	0.0	0.0				
	1550	1.7900009966007615	1.0	1.0	1.0	1.0	2.0	1	1.79	0.0	0.0	0.0	0.0	0.0	0.0	0.0	0.0	0.0	0.0	0.0	0.0				
	1566	54.77000099669442	20.53258818931693	47.0	20.0	1.0	66.0	1	54.77000000000001	0.0	0.0	0.0	0.0	0.0	0.0	0.0	0.0	0.0	0.0	0.0	0.0				
	1587	63.740000996645385	27.0	27.0	27.0	1.0	77.0	1	63.739999999999995	0.0	0.0	0.0	0.0	0.0	0.0	0.0	0.0	0.0	0.0	0.0	0.0				
	1600	17.43000099657169	3.0	3.0	3.0	1.0	21.0	1	17.43	0.0	0.0	0.0	0.0	0.0	0.0	0.0	0.0	0.0	0.0	0.0	0.0				
	1602	120.00000106050737	13.472727466044013	90.0	0.0	1.0	144.0	1	120.0	0.0	0.0	0.0	0.0	0.0	0.0	0.0	0.0	0.0	0.0	0.0	0.0				
	1603	120.00000118470662	67.31460563921064	90.0	0.0	1.0	144.0	1	120.0	0.0	0.0	0.0	0.0	0.0	0.0	0.0	0.0	0.0	0.0	0.0	0.0				
	1609	0.3000009973671222	0.0	0.0	0.0	1.0	0.0	1	0.3	0.0	0.0	0.0	0.0	0.0	0.0	0.0	0.0	0.0	0.0	0.0	0.0				
	1617	2.000000997123418	0.0	0.0	0.0	1.0	2.0	1	2.0	0.0	0.0	0.0	0.0	0.0	0.0	0.0	0.0	0.0	0.0	0.0	0.0				
	1620	1.6000009971044158	0.0	0.0	0.0	1.0	2.0	1	1.6	0.0	0.0	0.0	0.0	0.0	0.0	0.0	0.0	0.0	0.0	0.0	0.0				
...
];

%% branch data
%    f_bus    t_bus    r    x    b    rateA    rateB    rateC    ratio    angle    status    angmin    angmax
mpc.branch = [
	16	1	0.00155	0.01169	0.0182	160.0	160.0	160.0	0	0	1	-60.0001403060998	60.0001403060998	78.32520284207595	6.756779234101802	-78.24461290153042	-8.314146780109322				
	355	1	0.00157	0.06612	0.0	160.0	160.0	160.0	1.0099	0.0	1	-60.0001403060998	60.0001403060998	-78.16276096202613	-4.866981022132677	78.24461290153042	8.314146780109322				
	17	2	0.00155	0.01169	0.0182	160.0	160.0	160.0	0	0	1	-60.0001403060998	60.0001403060998	132.96407656056556	21.82716265696623	-132.7243369976929	-22.15266152244774				
	354	2	0.00157	0.06612	0.0	160.0	160.0	160.0	1.022	0.0	1	-60.0001403060998	60.0001403060998	-132.48088621212298	-11.899816973477487	132.7243369976929	22.15266152244774				
	10	3	0.01068	0.07895	0.1226	274.0	274.0	274.0	0	0	1	-60.0001403060998	60.0001403060998	128.90836785513648	13.31479066091498	-127.41495456250324	-16.907790839634				
	219	3	0.00165	0.06736	0.0	160.0	160.0	160.0	1.027	0.0	1	-60.0001403060998	60.0001403060998	-49.309325887811404	-11.888586691503242	49.34626696018757	13.396677985600325				
	220	3	0.00165	0.06736	0.0	160.0	160.0	160.0	0.9955	0.0	1	-60.0001403060998	60.0001403060998	-77.98240007605729	0.011510036127592447	78.06868760231568	3.5111128540336796				
	7	4	0.01674	0.09711	0.14423	377.0	377.0	377.0	0	0	1	-60.0001403060998	60.0001403060998	-200.32839154413526	27.522681984776387	206.5767813003871	-7.517386084328709				
	11	4	0.00293	0.01599	0.02478	335.0	335.0	335.0	0	0	1	-60.0001403060998	60.0001403060998	150.12367964584607	8.095104101661887	-149.54946498935817	-7.808521474069344				
	14	4	0.00442	0.03223	0.04985	463.99999999999994	463.99999999999994	463.99999999999994	0	0	1	-60.0001403060998	60.0001403060998	193.78034951456823	-42.112944863470595	-192.25309396539078	47.57972733593886				
	16	4	0.00888	0.06665	0.08896	377.0	377.0	377.0	0	0	1	-60.0001403060998	60.0001403060998	206.0397177928326	15.81119327531693	-202.84328208887626	-2.2061745792596272				
	22	4	0.00783	0.043	0.04962	350.0	350.0	350.0	0	0	1	-60.0001403060998	60.0001403060998	-182.0351885300214	54.560779610958754	184.4984808031151	-46.74302683173438				
	245	4	0.00165	0.06901	0.0	160.0	160.0	160.0	1.0594	0.0	1	-60.0001403060998	60.0001403060998	-97.0521155133468	-14.813345350098928	97.1946818782529	20.776075557474265				
	246	4	0.00165	0.06901	0.0	160.0	160.0	160.0	1.0448	0.0	1	-60.0001403060998	60.0001403060998	-56.32978817527946	6.009163174702764	56.37589706187016	-4.080693924021071				
	5	6	0.00064	0.0305	0.0	400.0	400.0	400.0	1.0435	-0.6	1	-60.0001403060998	60.0001403060998	-244.0659085101663	3.5093330467929165	244.4341826955339	14.041233599629438				
	7	5	0.00525	0.03988	0.06195	381.0	381.0	381.0	0	0	1	-60.0001403060998	60.0001403060998	-99.8808829509409	-11.632982306873565	100.3563542920572	8.317472619535748				
	10	5	0.01459	0.11219	0.16553	381.0	381.0	381.0	0	0	1	-60.0001403060998	60.0001403060998	4.755015741124538	31.018060749911903	-4.55008538532192	-48.86498017837908				
	309	5	0.00165	0.0686	0.0	160.0	160.0	160.0	1.0646	0.0	1	-60.0001403060998	60.0001403060998	-73.8372294661034	-24.154439994079844	73.92865224000104	27.95541107855195				
	309	5	0.00165	0.0686	0.0	160.0	160.0	160.0	1.0523	0.0	1	-60.0001403060998	60.0001403060998	-74.2489214610573	-5.670811371216273	74.33098736342997	9.082763433498465				
	6	8	0.00112	0.01329	0.34125	1316.0	1316.0	1316.0	0	0	1	-60.0001403060998	60.0001403060998	-310.9523976771837	-20.494538502906597	311.99202040708684	-2.878278138004126				
	6	9	0.00299	0.03675	0.9184	1427.0	1427.0	1427.0	0	0	1	-60.0001403060998	60.0001403060998	116.27097678586293	-93.87283165100858	-115.82213285722969	2.387093112989252				
	15	6	0.00298	0.03417	0.93504	1427.0	1427.0	1427.0	0	0	1	-60.0001403060998	60.0001403060998	-110.45850507129174	-58.12771577768411	110.81556629425636	-34.488753804322215				
	31	6	0.0015	0.01506	0.4032	1385.0	1385.0	1385.0	0	0	1	-60.0001403060998	60.0001403060998	386.8451721714821	-123.44920634319334	-384.4858240908658	105.5972855912244				
	310	6	0.0015	0.06188	0.0	250.0	250.0	250.0	1.0613	0.0	1	-60.0001403060998	60.0001403060998	-223.18325930031335	1.0721062366758436	223.91749599239628	29.21760476738355				
	12	7	0.01211	0.08742	0.14017	381.0	381.0	381.0	0	0	1	-60.0001403060998	60.0001403060998	-54.21046967485008	12.232743065183795	54.569297359738265	-25.325347684210016				
	13	7	0.00205	0.01326	0.02243	335.0	335.0	335.0	0	0	1	-60.0001403060998	60.0001403060998	5.428862567710721	18.056447879313094	-5.421463197804701	-20.501966759061087				
	19	7	0.0057	0.0407	0.06021	323.0	323.0	323.0	0	0	1	-60.0001403060998	60.0001403060998	-61.83591350221733	27.08386500815242	62.07648360347816	-32.09446349559498				
	21	7	0.00093	0.00651	0.01113	160.0	160.0	160.0	0	0	1	-60.0001403060998	60.0001403060998	-97.77233001167397	20.403498193159027	97.85613699806541	-21.05161041160167				
	29	7	0.01269	0.07498	0.1302	362.0	362.0	362.0	0	0	1	-60.0001403060998	60.0001403060998	130.44824095057916	-14.76649185919908	-128.5174578595787	11.650639911358656				
	321	7	0.00041	0.03368	0.0	250.0	250.0	250.0	1.0323	0.0	1	-60.0001403060998	60.0001403060998	-116.14985040199603	-1.6478151784762074	116.19989359763548	5.758680615394793				
	322	7	0.00165	0.06775	0.0	160.0	160.0	160.0	1.0569	0.0	1	-60.0001403060998	60.0001403060998	-103.22298935249732	-56.50164879381391	103.44638399354227	65.67436814581147				
	8	18	0.00336	0.03977	1.02163	1316.0	1316.0	1316.0	0	0	1	-60.0001403060998	60.0001403060998	-311.99202040708684	2.878278138004126	315.2059396100516	-71.77058531982482				
	332	9	0.00087	0.05244	-0.02144	330.0	330.0	330.0	1.0781	0.0	1	-60.0001403060998	60.0001403060998	-115.71302660599979	11.264602442218662	115.82213285722969	-2.387093112989252				
	171	10	0.01409	0.10413	0.15972	463.99999999999994	463.99999999999994	463.99999999999994	0	0	1	-60.0001403060998	60.0001403060998	-123.59582523102416	-26.30298554893068	125.5319549153754	21.823529525835806				
	346	10	0.00124	0.06839	0.0	160.0	160.0	160.0	1.0054	0.0	1	-60.0001403060998	60.0001403060998	-37.64934583037666	17.002908364384073	37.66639833046001	-16.062407976722348				
	347	10	0.00124	0.06839	0.0	160.0	160.0	160.0	1.024	0.0	1	-60.0001403060998	60.0001403060998	-92.65066021260131	-16.2642821932039	92.74276713442421	21.344276050839092				
	16	11	0.0057	0.03952	0.07553	463.99999999999994	463.99999999999994	463.99999999999994	0	0	1	-60.0001403060998	60.0001403060998	286.3109470406859	15.127334498481051	-282.37180036681605	3.3230417818992115				
	17	11	0.0057	0.03952	0.07553	463.99999999999994	463.99999999999994	463.99999999999994	0	0	1	-60.0001403060998	60.0001403060998	332.3063751775528	-5.204340706689345	-326.9582558044588	33.47953136391965				
	111	11	0.01068	0.06196	0.09496	394.0	394.0	394.0	0	0	1	-60.0001403060998	60.0001403060998	-246.3879332136758	91.36070972446892	252.63368676498095	-66.30159120701455				
	352	11	0.00165	0.06901	0.0	160.0	160.0	160.0	1.0412	0.0	1	-60.0001403060998	60.0001403060998	-120.22136175964822	9.006267176007087	120.42861913419232	-0.3378844988620922				
	353	11	0.00165	0.06901	0.0	160.0	160.0	160.0	1.0559	0.0	1	-60.0001403060998	60.0001403060998	-86.03126853723762	-17.023936541350487	86.14407062625551	21.7417984583959				
	140	12	0.01465	0.10589	0.17085	463.99999999999994	463.99999999999994	463.99999999999994	0	0	1	-60.0001403060998	60.0001403060998	46.276816832036715	24.395912428119484	-45.87219625493903	-41.47349886924649				
	359	12	0.00155	0.06612	0.0	160.0	160.0	160.0	1.0395	0.0	1	-60.0001403060998	60.0001403060998	-71.15906114165027	-9.408962863965147	71.23087181031468	12.4722670007985				
	360	12	0.00157	0.06612	0.0	160.0	160.0	160.0	1.059	0.0	1	-60.0001403060998	60.0001403060998	-28.836304599764993	-16.11615310696703	28.851794119474413	16.768488803264194				
	29	13	0.01345	0.08114	0.14113	339.0	339.0	339.0	0	0	1	-60.0001403060998	60.0001403060998	119.99448123680898	-17.628377131082186	-118.25725508416534	12.32759252514061				
	365	13	0.00165	0.06901	0.0	160.0	160.0	160.0	1.0312	0.0	1	-60.0001403060998	60.0001403060998	-50.15056275748533	3.3250657204593947	50.187906467643316	-1.7631933337907306				
	366	13	0.00165	0.06901	0.0	160.0	160.0	160.0	0.9872	0.0	1	-60.0001403060998	60.0001403060998	-62.57025402054388	31.558248446866127	62.640486048811304	-28.620847070662975				
	17	14	0.00384	0.02853	0.04588	463.99999999999994	463.99999999999994	463.99999999999994	0	0	1	-60.0001403060998	60.0001403060998	318.29505645720644	47.01359499653355	-314.90891736226683	-27.15104252776538				
	367	14	0.00157	0.06798	0.0	160.0	160.0	160.0	1.0664	0.0	1	-60.0001403060998	60.0001403060998	-73.74830120122111	-28.161230955212723	73.83821293302891	32.05435167386968				
	368	14	0.00165	0.06901	0.0	160.0	160.0	160.0	1.0777	0.0	1	-60.0001403060998	60.0001403060998	-47.23754984554335	-35.00110370499616	47.2903549146697	37.2096357173663				
	18	15	0.00358	0.04262	1.0944	1662.0	1662.0	1662.0	0	0	1	-60.0001403060998	60.0001403060998	475.61402607028305	-32.149694508943085	-467.82311162644856	11.677619342195639				
	15	165	0.00207	0.02474	0.664	831.0	831.0	831.0	0	0	1	-60.0001403060998	60.0001403060998	426.51968203404243	-21.77946827092328	-422.84933215963764	-2.1101556483534156				
	374	15	0.0015	0.06188	0.0	250.0	250.0	250.0	1.1502	0.0	1	-60.0001403060998	60.0001403060998	-151.35748566346365	-51.54469528341693	151.76193466369787	68.22956470641175				
	16	18	0.00036	0.02519	0.0	500.0	500.0	500.0	1.0605	0.0	1	-60.0001403060998	60.0001403060998	74.35370030965973	34.18473600744634	-74.33094809331642	-32.592712869425846				
	16	73	0.00909	0.0624	0.11142	463.99999999999994	463.99999999999994	463.99999999999994	0	0	1	-60.0001403060998	60.0001403060998	28.322439209338036	6.3207200519154325	-28.248443781483996	-18.97424797311995				
	17	18	0.00036	0.02519	0.0	500.0	500.0	500.0	1.0607	0.0	1	-60.0001403060998	60.0001403060998	145.12332211243597	7.996394064007428	-145.05062364759578	-2.909520926991634				
	17	74	0.00868	0.06405	0.09699	463.99999999999994	463.99999999999994	463.99999999999994	0	0	1	-60.0001403060998	60.0001403060998	85.86118047752119	-5.730332606719667	-85.31747953350192	-1.6133445980661243				
	20	18	0.00063	0.00749	0.39226	1427.0	1427.0	1427.0	0	0	1	-60.0001403060998	60.0001403060998	-310.2249414357859	59.49458844610379	310.8409588532064	-93.20373047265194				
	75	18	0.00219	0.02369	0.59584	1434.0	1434.0	1434.0	0	0	1	-60.0001403060998	60.0001403060998	-79.93323454500421	-15.511719401870739	80.07215261523699	-45.19558619681898				
	18	76	0.00137	0.01625	0.41184	1662.0	1662.0	1662.0	0	0	1	-60.0001403060998	60.0001403060998	117.28669349034988	-40.98514408570736	-117.10087223713774	0.19139820391121173				
	18	101	0.00231	0.02769	0.70144	1662.0	1662.0	1662.0	0	0	1	-60.0001403060998	60.0001403060998	139.672680547996	-68.031989251064	-139.21836414512202	-0.0712462837685072				
	124	19	0.01696	0.12366	0.19699	463.99999999999994	463.99999999999994	463.99999999999994	0	0	1	-60.0001403060998	60.0001403060998	24.797956949400522	20.292576319708658	-24.566544965800905	-41.63344821866107				
	425	19	0.00165	0.06818	0.0	160.0	160.0	160.0	1.0241	0.0	1	-60.0001403060998	60.0001403060998	-86.28996164035667	-9.90107793174173	86.40245846801822	14.549583210508658				
	67	20	0.00331	0.03425	0.85888	831.0	831.0	831.0	0	0	1	-60.0001403060998	60.0001403060998	-158.21778395748532	-11.222538147744645	159.03625734076138	-70.90961808624702				
	447	20	0.00137	0.06119	-0.01504	250.0	250.0	250.0	1.0796	0.0	1	-60.0001403060998	60.0001403060998	-83.95792021078019	9.086460885771587	84.05033576850322	-3.375842193834712				
	448	20	0.00137	0.06119	-0.01504	250.0	250.0	250.0	1.0923	0.0	1	-60.0001403060998	60.0001403060998	-67.07696774564702	-10.483415068843732	67.1383483265213	14.790871833977947				
	502	21	0.00165	0.07107	0.0	160.0	160.0	160.0	0.9922	0.0	1	-60.0001403060998	60.0001403060998	-97.62402056834017	26.79159039784425	97.77233001167397	-20.403498193159027				
	112	22	0.00465	0.02618	0.02962	362.0	362.0	362.0	0	0	1	-60.0001403060998	60.0001403060998	-187.15567102722963	114.75244689077115	189.0408710447394	-107.62939255174841				
	526	22	0.00165	0.06901	0.0	160.0	160.0	160.0	1.0685	0.0	1	-60.0001403060998	60.0001403060998	-16.73931356841825	-45.60628724077972	16.77492156226556	47.09556460769043				
	527	22	0.00165	0.06901	0.0	160.0	160.0	160.0	1.0424	0.0	1	-60.0001403060998	60.0001403060998	23.789169097286848	-5.614822847564828	-23.780604076983533	5.973048333099227				
	37	23	0.01163	0.07031	0.1058	394.0	394.0	394.0	0	0	1	-60.0001403060998	60.0001403060998	-8.404474909577003	-0.9477552729711649	8.414444523774288	-10.625509323856443				
	46	23	0.00837	0.04868	0.07348	457.0	457.0	457.0	0	0	1	-60.0001403060998	60.0001403060998	-1.6203172140445259	2.978875664586118	1.6242683207255055	-11.041838086994153				
	53	23	0.01122	0.06558	0.09835	274.0	274.0	274.0	0	0	1	-60.0001403060998	60.0001403060998	96.5183964061755	-17.997466691613024	-95.5506516094644	12.856945957005571				
	540	23	0.0014	0.0668	0.0	160.0	160.0	160.0	1.0182	0.0	1	-60.0001403060998	60.0001403060998	-85.41764054674532	-4.311029327381348	85.51193876496461	8.81040145384502				
	54	24	0.00769	0.05727	0.08789	160.0	160.0	160.0	0	0	1	-60.0001403060998	60.0001403060998	44.93855084950516	-10.48184160572325	-44.79610154010132	1.810720566114959				
	545	24	0.00151	0.06715	0.0	160.0	160.0	160.0	1.0161	0.0	1	-60.0001403060998	60.0001403060998	-44.768693570008175	3.0295584414482812	44.79610154010132	-1.810720566114959				
	41	25	0.00556	0.04145	0.0636	274.0	274.0	274.0	0	0	1	-60.0001403060998	60.0001403060998	89.43173271459234	-2.1731998079483117	-89.03332639908855	-1.9259466421157119				
	53	25	0.00452	0.03368	0.05169	463.99999999999994	463.99999999999994	463.99999999999994	0	0	1	-60.0001403060998	60.0001403060998	-118.16141200128698	3.1183300212373437	118.73739024374485	-4.525531967807698				
	54	25	0.00019	0.0014	0.00213	463.99999999999994	463.99999999999994	463.99999999999994	0	0	1	-60.0001403060998	60.0001403060998	88.9176136943182	9.889016723744156	-88.90387452309653	-10.02355335274615				
	564	25	0.00157	0.07808	0.0	160.0	160.0	160.0	1.0276	0.0	1	-60.0001403060998	60.0001403060998	-59.146237929221954	-13.81072606523969	59.19981067844026	16.475031962669558				
	38	26	0.00698	0.05196	0.07967	160.0	160.0	160.0	0	0	1	-60.0001403060998	60.0001403060998	64.77791571230335	2.969599443471483	-64.50870560716784	-9.683058653022826				
	568	26	0.00149	0.06616	0.0	160.0	160.0	160.0	1.013	0.0	1	-60.0001403060998	60.0001403060998	-64.45034552294744	-7.091714242270059	64.50870560716784	9.683058653022826				
	28	27	0.0	0.0001	0.0	876.0	876.0	876.0	0	0	1	-60.0001403060998	60.0001403060998	107.03786566306898	-11.295261662858609	-107.03786566306898	11.305624444262419				
	33	27	0.0024	0.01494	0.02253	160.0	160.0	160.0	0	0	1	-60.0001403060998	60.0001403060998	-90.53793419964113	-19.53511044340097	90.72274118996887	18.178074695538946				
	48	27	0.01213	0.06215	0.09371	362.0	362.0	362.0	0	0	1	-60.0001403060998	60.0001403060998	-150.32312341821924	21.301119678215326	152.87850530834947	-18.628171878011347				
	27	74	0.01116	0.07231	0.10367	304.0	304.0	304.0	0	0	1	-60.0001403060998	60.0001403060998	-136.56338083524935	-10.855527261790018	138.42766424971862	11.103020537846724				
	47	28	0.00248	0.01798	0.02759	463.99999999999994	463.99999999999994	463.99999999999994	0	0	1	-60.0001403060998	60.0001403060998	-61.21136185201832	-15.204157810952989	61.2992642424511	12.768260449125485				
	28	88	0.01488	0.08161	0.1148	362.0	362.0	362.0	0	0	1	-60.0001403060998	60.0001403060998	-168.3371299055201	-1.4729987862668745	172.11223634261154	9.002638031250159				
	30	29	0.0	0.0001	0.0	876.0	876.0	876.0	0	0	1	-60.0001403060998	60.0001403060998	-48.65269599955358	-80.42397044550727	48.65269599955358	80.43184544351138				
	29	32	0.00034	0.02097	0.0	500.0	500.0	500.0	1.0619	0.0	1	-60.0001403060998	60.0001403060998	-413.9684606401253	-31.08668573563535	414.55730373342806	67.40444946081011				
	45	29	0.00545	0.04021	0.06699	463.99999999999994	463.99999999999994	463.99999999999994	0	0	1	-60.0001403060998	60.0001403060998	-33.0237029488555	-21.844104125411615	33.09381798709508	14.906256691376537				
	48	29	0.00574	0.04283	0.06573	463.99999999999994	463.99999999999994	463.99999999999994	0	0	1	-60.0001403060998	60.0001403060998	7.1906241869230145	-23.353698525988715	-7.16775916790708	16.201932384530842				
	613	29	0.00157	0.06775	0.0	160.0	160.0	160.0	1.0016	0.0	1	-60.0001403060998	60.0001403060998	-66.77958085455816	43.15675742774408	66.86398265243663	-39.51457793330652				
	46	30	0.00545	0.04021	0.06699	463.99999999999994	463.99999999999994	463.99999999999994	0	0	1	-60.0001403060998	60.0001403060998	-32.78729256137842	-21.634160435177492	32.85626266828216	14.688279538204863				
	49	30	0.00707	0.04541	0.06931	362.0	362.0	362.0	0	0	1	-60.0001403060998	60.0001403060998	6.3109165244827805	-22.300620334469983	-6.286567654741236	14.736284372287468				
	32	31	0.0	0.0001	0.0	1593.0	1593.0	1593.0	0	0	1	-60.0001403060998	60.0001403060998	-693.9548817588995	-104.3599683704592	693.9548817588995	104.8434657886504				
	39	31	0.00176	0.02144	0.57344	1385.0	1385.0	1385.0	0	0	1	-60.0001403060998	60.0001403060998	98.801601086513	-32.51881013232524	-98.63304393723838	-23.894259707453436				
	36	32	0.00167	0.0189	0.54176	498.00000000000006	498.00000000000006	498.00000000000006	0	0	1	-60.0001403060998	60.0001403060998	-278.0493549346898	-76.04297854027865	279.3975780254715	36.95551890964909				
...